OPT_V9/My_campus_w_initial_sub_3_active_28_03_16_28/powerflow_results_t3.txt
Pandapower Network Debug Info
==================================================

BUS:
       vm_pu  va_degree      p_mw    q_mvar
0   1.003454  -0.175155 -0.001677 -0.005751
1   1.004142  -0.207247  0.000171 -0.001159
2   1.004533  -0.189849 -0.000434  0.000000
3   1.003589  -0.219089  0.000434 -0.000818
4   0.999942  -0.180198  0.001054 -0.000846
5   1.000988  -0.076160  0.000969 -0.000634
6   1.002669  -0.091233 -0.001057 -0.001128
7   1.000794  -0.104176  0.000430 -0.002332
8   1.000425  -0.063972 -0.000006 -0.004730
9   0.999904   0.000030  0.010685  0.010190
10  0.999891   0.000060  0.010224  0.007490
11  0.999879   0.000116  0.013668  0.012651
12  0.999854  -0.000998  0.008891  0.007044
13  0.999825  -0.000926  0.012713  0.009072
14  0.999835  -0.000902  0.012750  0.013919
15  0.999950  -0.000119  0.000000  0.000000
16  0.999950  -0.000123  0.000000  0.000000
17  0.999859  -0.001000  0.000000  0.000000
18  0.999859  -0.001006  0.000000  0.000000
19  1.000000   0.000000 -0.033124 -0.027629
20  1.000000   0.000004  0.000000  0.000000
21  1.000000   0.000000 -0.035787 -0.025384
22  1.000000   0.000003  0.000000  0.000000
--------------------------------------------------

LINE:
    p_from_mw   q_from_mvar   p_to_mw     q_to_mvar         pl_mw       ql_mvar  i_from_ka   i_to_ka      i_ka  vm_from_pu  va_from_degree  vm_to_pu  va_to_degree  loading_percent
0    0.033114  2.362927e-02 -0.033113 -2.362801e-02  1.618716e-06  1.262140e-06   0.001566  0.001566  0.001566    1.000000        0.000004  0.999950     -0.000119         0.680780
1    0.035777  2.138395e-02 -0.035772 -2.138031e-02  4.672976e-06  3.643597e-06   0.001604  0.001604  0.001604    1.000000        0.000003  0.999859     -0.001000         0.697512
2    0.034578  3.033246e-02 -0.034577 -3.033118e-02  1.636221e-06  1.275788e-06   0.001771  0.001771  0.001771    0.999950       -0.000119  0.999904      0.000030         0.769790
3    0.008891  7.044288e-03 -0.008891 -7.044253e-03  4.451115e-08  3.470607e-08   0.000437  0.000437  0.000437    0.999859       -0.001000  0.999854     -0.000998         0.189858
4    0.025464  2.299227e-02 -0.025464 -2.299176e-02  6.438002e-07  5.019816e-07   0.001321  0.001321  0.001321    0.999859       -0.001000  0.999835     -0.000902         0.574228
5   -0.001476 -7.704298e-03  0.001505  7.726741e-03  2.878361e-05  2.244305e-05   0.011323  0.011323  0.011323    0.999950       -0.000123  1.003454     -0.175155         4.923012
6   -0.000084 -1.757650e-03  0.000086  1.759524e-03  2.402911e-06  1.873589e-06   0.002540  0.002540  0.002540    0.999859       -0.001006  1.000988     -0.076160         1.104436
7    0.000434 -2.328547e-03 -0.000430  2.331503e-03  3.791580e-06  2.956357e-06   0.003419  0.003419  0.003419    0.999859       -0.001006  1.000794     -0.104176         1.486670
8    0.001057 -5.569714e-03 -0.001051  5.574024e-03  5.527286e-06  4.309716e-06   0.008184  0.008184  0.008184    0.999859       -0.001006  1.000425     -0.063972         3.558133
9   -0.023892 -2.014114e-02  0.023892  2.014140e-02  3.377658e-07  2.633615e-07   0.001203  0.001203  0.001203    0.999891        0.000060  0.999904      0.000030         0.523000
10  -0.013668 -1.265095e-02  0.013668  1.265109e-02  1.696791e-07  1.323016e-07   0.000717  0.000717  0.000717    0.999879        0.000116  0.999891      0.000060         0.311710
11   0.012713  9.072310e-03 -0.012713 -9.072217e-03  1.193404e-07  9.305169e-08   0.000601  0.000601  0.000601    0.999835       -0.000902  0.999825     -0.000926         0.261415
12   0.000263  1.159286e-03 -0.000263 -1.158639e-03  8.292580e-07  6.465861e-07   0.001709  0.001709  0.001709    1.004142       -0.207247  1.003454     -0.175155         0.742973
13  -0.000434  8.179280e-04  0.000435 -8.174847e-04  5.685165e-07  4.432817e-07   0.001332  0.001332  0.001332    1.003589       -0.219089  1.003454     -0.175155         0.579079
14   0.000434  2.437672e-11 -0.000434  1.317968e-07  1.690630e-07  1.318212e-07   0.000624  0.000624  0.000624    1.004533       -0.189849  1.004142     -0.207247         0.271300
15   0.001057 -8.438851e-04 -0.001054  8.456185e-04  2.223103e-06  1.733390e-06   0.001951  0.001951  0.001951    1.000425       -0.063972  0.999942     -0.180198         0.848262
16   0.001057  1.127530e-03 -0.001055 -1.125917e-03  2.068734e-06  1.613026e-06   0.002225  0.002225  0.002225    1.002669       -0.091233  1.000988     -0.076160         0.967362
--------------------------------------------------

TRAFO:
    p_hv_mw  q_hv_mvar   p_lv_mw  q_lv_mvar    pl_mw  ql_mvar   i_hv_ka   i_lv_ka  vm_hv_pu  va_hv_degree  vm_lv_pu  va_lv_degree  loading_percent
0 -0.001466  -0.006704  0.001476   0.007704  0.00001    0.001  0.000264  0.011323  0.999950     -0.000119  0.999950     -0.000123         0.078448
1  0.001417  -0.008656 -0.001407   0.009656  0.00001    0.001  0.000338  0.014086  0.999859     -0.001000  0.999859     -0.001006         0.097592
2  0.033124   0.027629 -0.033114  -0.023629  0.00001    0.004  0.000356  0.001566  1.000000      0.000000  1.000000      0.000004         0.107837
3  0.035787   0.025384 -0.035777  -0.021384  0.00001    0.004  0.000362  0.001604  1.000000      0.000000  1.000000      0.000003         0.109688
--------------------------------------------------
